Circuit: * C:\users\oem\Desktop\eletronica\ltspice\cursoLtspice\aula04.asc

Direct Newton iteration for .op point succeeded.

Date: Wed Mar 12 17:42:34 2025
Total elapsed time: 0.430 seconds.

tnom = 27
temp = 27
method = modified trap
totiter = 2092
traniter = 2088
tranpoints = 1045
accept = 1045
rejected = 0
matrix size = 4
fillins = 0
solver = Normal
Matrix Compiler1:       4 opcodes  0.5/[0.4]/0.5
Matrix Compiler2: 214 bytes object code size  0.6/0.6/[0.5]

