Circuit: * C:\users\oem\Desktop\eletronica\ltspice\cursoLtspice\aula05.asc

Direct Newton iteration for .op point succeeded.

Date: Sun Mar 16 17:47:44 2025
Total elapsed time: 0.089 seconds.

tnom = 27
temp = 27
method = trap
totiter = 3
traniter = 0
tranpoints = 0
accept = 0
rejected = 0
matrix size = 4
fillins = 0
solver = Normal
Matrix Compiler1: 100 bytes object code size
Matrix Compiler2:      21 opcodes
