Circuit: * C:\users\oem\Desktop\eletronica\ltspice\cursoLtspice\aula04-1.asc

Direct Newton iteration for .op point succeeded.

Date: Thu Mar 13 20:06:57 2025
Total elapsed time: 0.127 seconds.

tnom = 27
temp = 27
method = modified trap
totiter = 2091
traniter = 2088
tranpoints = 1045
accept = 1045
rejected = 0
matrix size = 4
fillins = 0
solver = Normal
Matrix Compiler1:       8 opcodes  0.2/[0.1]/0.1
Matrix Compiler2: off
