Circuit: * C:\users\oem\Desktop\eletronica\ltspice\cursoLtspice\aula02.asc

WARNING: Less than two connections to node NC_01.  This node is used by V1.
.OP point found by inspection.

Date: Sat Mar 08 10:07:24 2025
Total elapsed time: 0.375 seconds.

tnom = 27
temp = 27
method = modified trap
totiter = 2088
traniter = 2088
tranpoints = 1045
accept = 1045
rejected = 0
matrix size = 2
fillins = 0
solver = Normal
Matrix Compiler1: 18 bytes object code size  0.5/0.5/[0.4]
Matrix Compiler2: off
