Circuit: * C:\users\oem\Desktop\eletronica\ltspice\cursoLtspice\ex03-2.asc

Direct Newton iteration for .op point succeeded.

Date: Mon Mar 10 11:31:10 2025
Total elapsed time: 0.472 seconds.

tnom = 27
temp = 27
method = modified trap
totiter = 2091
traniter = 2088
tranpoints = 1045
accept = 1045
rejected = 0
matrix size = 6
fillins = 1
solver = Normal
Matrix Compiler1: 182 bytes object code size  1.0/0.9/[0.8]
Matrix Compiler2: off
