Circuit: * C:\users\oem\Desktop\eletronica\ltspice\cursoLtspice\ex03-1.asc

Direct Newton iteration for .op point succeeded.

Date: Mon Mar 10 11:12:15 2025
Total elapsed time: 0.415 seconds.

tnom = 27
temp = 27
method = modified trap
totiter = 2091
traniter = 2088
tranpoints = 1045
accept = 1045
rejected = 0
matrix size = 3
fillins = 0
solver = Normal
Matrix Compiler1: 50 bytes object code size  0.4/0.4/[0.4]
Matrix Compiler2: off
